src/test/resources/pst_special/process1/padricianoOutage/20260620_1130_2D1_SI0.UCT
##C 2007.05.01
##N
##ZSI
LBERIC1  BERICEVO     0 0            8.4     2.5     9.2     2.3     7.4     0.2     5.8     5.9   5.4     6.2     0.5          
LDIVAC11 DIVACA       0 0            0.7     9.4     4.9     8.9     3.1     3.6     5.9     5.9   6.9     4.8     4.0          
LDIVAC12 LDIVAC12     0 0            1.6     2.6     3.0     6.8     6.3     1.1     7.9     3.1   9.8     1.2     8.8          
LDIVAC51 LDIVAC51     0 0           42.6     5.4     6.1     0.4     9.8     8.1     7.3     5.2   5.4     2.7     3.9         
##ZXX
XRE_DI11 REDIPUGLIA   0 2  795.1     4.9   -06.1     2.0     0.2     7.2     6.4   170.1  -093.6   3.1     8.9     4.0         
XME_DI11 MELINA       0 2  123.1  -963.7   -89.6     6.7     2.5     2.8     2.2     2.4     7.1   6.1     9.3     5.7         
##L
LDIVAC12 XRE_DI11 1 0  1.903  4.647   62.017   2700 XXXXXXXXXXXX
LDIVAC11 XME_DI11 1 0   1.94 74.307   118.99   1920 XXXXXXXXXXXX
LDIVAC11 LBERIC1  1 0  6.837 48.340   491.06   1920 XXXXXXXXXXXX
LDIVAC12 LDIVAC11 2 7   4.48   1.48      7.7   9999 XXXXXXXXXXXX
##T
LDIVAC11 LDIVAC12 1 0 616.8 811.4  1200   7.64 71.320   -8.513  9.756   1732 XXXXXXXXXXXX
LDIVAC51 LDIVAC11 1 0 268.3 834.9   300 9.9510  5.107 -661.626 83.615   1506 XXXXXXXXXXXX
##R
LDIVAC11 LDIVAC12 1     0  0   0     0  5.03    90 32   0       SYMM
LDIVAC51 LDIVAC11 1   7.5 12  -1     0                          
